LTspice 24.1.9 for Windows
Circuit: D:\a_unibo_courses\2-Analogue_Circuits\2025\project2\filter1.net
Start Time: Wed Jul  2 20:56:34 2025
solver = Normal
Maximum thread count: 8
tnom = 27
temp = 27
method = trap
.OP point found by inspection.
Total elapsed time: 0.083 seconds.

Files loaded:
D:\a_unibo_courses\2-Analogue_Circuits\2025\project2\filter1.net
D:\a_unibo_courses\2-Analogue_Circuits\2025\project2\idealopamp_singlepole.sub.cir

